<additional>
    <chargingStation id="gridStation" lane="-368620842#8_0" startPos="5" endPos="15" power="22000" vehicleCapacity="3"/>
</additional>
