<?xml version="1.0" encoding="UTF-8"?>

<!-- generated on 2025-04-25 21:44:48 by Eclipse SUMO netconvert Version 3984794750
<configuration xmlns:xsi="http://www.w3.org/2001/XMLSchema-instance" xsi:noNamespaceSchemaLocation="http://sumo.dlr.de/xsd/netconvertConfiguration.xsd">

    <input>
        <type-files value="${SUMO_HOME}/data/typemap/osmNetconvert.typ.xml"/>
        <osm-files value="osm_bbox.osm.xml.gz"/>
    </input>

    <output>
        <output-file value="osm.net.xml.gz"/>
        <output.street-names value="true"/>
        <output.original-names value="true"/>
    </output>

    <projection>
        <proj.utm value="true"/>
    </projection>

    <processing>
        <geometry.remove value="true"/>
        <roundabouts.guess value="true"/>
    </processing>

    <tls_building>
        <tls.discard-simple value="true"/>
        <tls.join value="true"/>
        <tls.guess-signals value="true"/>
        <tls.default-type value="actuated"/>
    </tls_building>

    <ramp_guessing>
        <ramps.guess value="true"/>
    </ramp_guessing>

    <junctions>
        <junctions.join value="true"/>
        <junctions.corner-detail value="5"/>
    </junctions>

</configuration>
-->

<net version="1.16" junctionCornerDetail="5" limitTurnSpeed="5.50" xmlns:xsi="http://www.w3.org/2001/XMLSchema-instance" xsi:noNamespaceSchemaLocation="http://sumo.dlr.de/xsd/net_file.xsd">

    <location netOffset="-281199.26,-4401477.39" convBoundary="0.00,0.00,5065.93,3599.79" origBoundary="30.446451,39.736210,30.505766,39.768309" projParameter="+proj=utm +zone=36 +ellps=WGS84 +datum=WGS84 +units=m +no_defs"/>

    <type id="highway.cycleway" priority="1" numLanes="1" speed="5.56" allow="bicycle" oneway="0" width="2.00"/>
    <type id="highway.footway" priority="1" numLanes="1" speed="2.78" allow="pedestrian" oneway="1" width="2.00"/>
    <type id="highway.path" priority="1" numLanes="1" speed="5.56" allow="pedestrian bicycle" oneway="0" width="2.00"/>
    <type id="highway.pedestrian" priority="1" numLanes="1" speed="2.78" allow="pedestrian" oneway="1" width="2.00"/>
    <type id="highway.residential" priority="3" numLanes="1" speed="13.89" disallow="tram rail_urban rail rail_electric rail_fast ship" oneway="0"/>
    <type id="highway.service" priority="1" numLanes="1" speed="5.56" allow="pedestrian delivery bicycle" oneway="0"/>
    <type id="highway.steps" priority="1" numLanes="1" speed="1.39" allow="pedestrian" oneway="1" width="2.00"/>
    <type id="highway.tertiary" priority="10" numLanes="1" speed="22.22" disallow="tram rail_urban rail rail_electric rail_fast ship" oneway="0"/>
    <type id="highway.track" priority="1" numLanes="1" speed="5.56" allow="pedestrian motorcycle moped bicycle" oneway="0"/>
    <type id="highway.trunk" priority="13" numLanes="2" speed="27.78" disallow="pedestrian bicycle tram rail_urban rail rail_electric rail_fast ship" oneway="0"/>
    <type id="highway.trunk_link" priority="8" numLanes="1" speed="22.22" disallow="pedestrian bicycle tram rail_urban rail rail_electric rail_fast ship" oneway="0"/>
    <type id="highway.unclassified" priority="4" numLanes="1" speed="13.89" disallow="tram rail_urban rail rail_electric rail_fast ship" oneway="0"/>
    <type id="railway.rail" priority="20" numLanes="1" speed="44.44" allow="rail" oneway="1"/>

    <edge id=":11068149965_0" function="internal">
        <lane id=":11068149965_0_0" index="0" allow="pedestrian delivery bicycle" speed="3.65" length="4.67" shape="2334.01,2101.15 2332.70,2101.76 2331.81,2101.68 2331.34,2100.92 2331.28,2099.48"/>
    </edge>
    <edge id=":11327791237_0" function="internal">
        <lane id=":11327791237_0_0" index="0" allow="bicycle" speed="5.56" length="5.01" width="2.00" shape="2461.59,1476.11 2461.77,1481.12"/>
    </edge>
    <edge id=":11327791238_0" function="internal">
        <lane id=":11327791238_0_0" index="0" allow="bicycle" speed="5.56" length="5.04" width="2.00" shape="2462.14,1501.16 2462.18,1506.19"/>
    </edge>
    <edge id=":11327791239_0" function="internal">
        <lane id=":11327791239_0_0" index="0" allow="bicycle" speed="5.56" length="5.04" width="2.00" shape="2462.39,1535.17 2462.43,1540.21"/>
    </edge>
    <edge id=":11327791240_0" function="internal">
        <lane id=":11327791240_0_0" index="0" allow="bicycle" speed="5.56" length="5.00" width="2.00" shape="2463.61,1576.69 2463.80,1581.69"/>
    </edge>
    <edge id=":11327791249_0" function="internal">
        <lane id=":11327791249_0_0" index="0" allow="bicycle" speed="5.56" length="5.22" width="2.00" shape="3345.46,1704.68 3350.66,1705.20"/>
    </edge>
    <edge id=":11451696556_0" function="internal">
        <lane id=":11451696556_0_0" index="0" allow="pedestrian delivery bicycle" speed="5.56" length="7.57" shape="2311.35,1641.41 2309.30,1641.16 2307.80,1640.32 2306.85,1638.88 2306.46,1636.86"/>
    </edge>
    <edge id=":11451696556_1" function="internal">
        <lane id=":11451696556_1_0" index="0" allow="pedestrian delivery bicycle" speed="3.91" length="2.52" shape="2309.66,1636.69 2309.79,1637.37 2310.10,1637.85 2310.60,1638.13 2311.29,1638.21"/>
    </edge>
    <edge id=":11451696558_0" function="internal">
        <lane id=":11451696558_0_0" index="0" allow="pedestrian delivery bicycle" speed="5.07" length="5.04" shape="2325.96,1585.23 2325.70,1583.86 2325.07,1582.90 2324.08,1582.35 2322.72,1582.21"/>
    </edge>
    <edge id=":11451696558_1" function="internal">
        <lane id=":11451696558_1_0" index="0" allow="pedestrian delivery bicycle" speed="5.56" length="10.21" shape="2325.96,1585.23 2326.22,1582.44 2327.31,1580.41 2329.23,1579.14 2331.99,1578.64"/>
    </edge>
    <edge id=":11451696558_2" function="internal">
        <lane id=":11451696558_2_0" index="0" allow="pedestrian delivery bicycle" speed="3.65" length="4.67" shape="2325.96,1585.23 2326.70,1583.99 2327.48,1583.55 2328.30,1583.91 2329.16,1585.07"/>
    </edge>
    <edge id=":11451696558_3" function="internal">
        <lane id=":11451696558_3_0" index="0" allow="pedestrian delivery bicycle" speed="5.03" length="5.01" shape="2332.12,1581.83 2330.76,1582.08 2329.82,1582.70 2329.28,1583.70 2329.16,1585.07"/>
    </edge>
    <edge id=":11451696558_4" function="internal">
        <lane id=":11451696558_4_0" index="0" allow="pedestrian delivery bicycle" speed="5.56" length="9.40" shape="2332.12,1581.83 2322.72,1582.21"/>
    </edge>
    <edge id=":11451696558_5" function="internal">
        <lane id=":11451696558_5_0" index="0" allow="pedestrian delivery bicycle" speed="3.65" length="4.67" shape="2332.12,1581.83 2330.88,1581.08 2330.45,1580.30 2330.82,1579.48 2331.99,1578.64"/>
    </edge>
    <edge id=":11451696558_6" function="internal">
        <lane id=":11451696558_6_0" index="0" allow="pedestrian delivery bicycle" speed="5.56" length="9.40" shape="2322.59,1579.01 2331.99,1578.64"/>
    </edge>
    <edge id=":11451696558_7" function="internal">
        <lane id=":11451696558_7_0" index="0" allow="pedestrian delivery bicycle" speed="5.56" length="10.16" shape="2322.59,1579.01 2325.35,1579.30 2327.36,1580.40 2328.63,1582.33 2329.16,1585.07"/>
    </edge>
    <edge id=":11451696558_8" function="internal">
        <lane id=":11451696558_8_0" index="0" allow="pedestrian delivery bicycle" speed="3.65" length="4.67" shape="2322.59,1579.01 2323.82,1579.76 2324.26,1580.55 2323.89,1581.36 2322.72,1582.21"/>
    </edge>
    <edge id=":11451696560_0" function="internal">
        <lane id=":11451696560_0_0" index="0" allow="pedestrian delivery bicycle" speed="5.56" length="5.77" shape="2279.83,1643.86 2279.28,1642.18 2278.48,1640.98 2277.44,1640.27 2276.16,1640.05"/>
    </edge>
    <edge id=":11451696560_1" function="internal">
        <lane id=":11451696560_1_0" index="0" allow="pedestrian delivery bicycle" speed="5.56" length="11.00" shape="2279.83,1643.86 2279.60,1640.79 2280.45,1638.53 2282.39,1637.10 2285.42,1636.49"/>
    </edge>
    <edge id=":11451696560_2" function="internal">
        <lane id=":11451696560_2_0" index="0" allow="pedestrian delivery bicycle" speed="3.65" length="4.67" shape="2279.83,1643.86 2280.35,1642.52 2281.04,1641.96 2281.91,1642.17 2282.95,1643.17"/>
    </edge>
    <edge id=":11451696560_3" function="internal">
        <lane id=":11451696560_3_0" index="0" allow="pedestrian delivery bicycle" speed="4.88" length="5.20" shape="2285.60,1639.68 2284.16,1639.97 2283.25,1640.65 2282.84,1641.72 2282.95,1643.17"/>
    </edge>
    <edge id=":11451696560_4" function="internal">
        <lane id=":11451696560_4_0" index="0" allow="pedestrian delivery bicycle" speed="5.56" length="9.44" shape="2285.60,1639.68 2276.16,1640.05"/>
    </edge>
    <edge id=":11451696560_5" function="internal">
        <lane id=":11451696560_5_0" index="0" allow="pedestrian delivery bicycle" speed="3.65" length="4.67" shape="2285.60,1639.68 2284.35,1638.95 2283.91,1638.17 2284.26,1637.35 2285.42,1636.49"/>
    </edge>
    <edge id=":11451696560_6" function="internal">
        <lane id=":11451696560_6_0" index="0" allow="pedestrian delivery bicycle" speed="5.56" length="9.32" shape="2276.10,1636.85 2285.42,1636.49"/>
    </edge>
    <edge id=":11451696560_7" function="internal">
        <lane id=":11451696560_7_0" index="0" allow="pedestrian delivery bicycle" speed="5.56" length="10.20" shape="2276.10,1636.85 2278.57,1637.21 2280.53,1638.38 2281.99,1640.37 2282.95,1643.17"/>
    </edge>
    <edge id=":11451696560_8" function="internal">
        <lane id=":11451696560_8_0" index="0" allow="pedestrian delivery bicycle" speed="3.65" length="4.67" shape="2276.10,1636.85 2277.32,1637.63 2277.73,1638.42 2277.35,1639.23 2276.16,1640.05"/>
    </edge>
    <edge id=":11451696563_0" function="internal">
        <lane id=":11451696563_0_0" index="0" allow="pedestrian delivery bicycle" speed="3.90" length="2.56" shape="2287.48,1600.37 2287.36,1599.68 2287.04,1599.19 2286.54,1598.91 2285.85,1598.82"/>
    </edge>
    <edge id=":11451696563_1" function="internal">
        <lane id=":11451696563_1_0" index="0" allow="pedestrian delivery bicycle" speed="5.56" length="7.67" shape="2285.79,1595.62 2287.87,1595.88 2289.38,1596.74 2290.31,1598.20 2290.68,1600.26"/>
    </edge>
    <edge id=":11496561438_0" function="internal">
        <lane id=":11496561438_0_0" index="0" disallow="tram rail_urban rail rail_electric rail_fast ship" speed="4.29" length="1.18" shape="2551.22,1975.34 2550.95,1975.55 2550.78,1975.73 2550.68,1975.95 2550.59,1976.29"/>
    </edge>
    <edge id=":11496561438_1" function="internal">
        <lane id=":11496561438_1_0" index="0" disallow="tram rail_urban rail rail_electric rail_fast ship" speed="6.80" length="3.55" shape="2547.47,1975.58 2547.73,1974.57 2548.03,1973.91 2548.53,1973.36 2549.36,1972.73"/>
    </edge>
    <edge id=":11496561439_0" function="internal">
        <lane id=":11496561439_0_0" index="0" disallow="tram rail_urban rail rail_electric rail_fast ship" speed="6.88" length="9.51" shape="2598.53,1975.88 2596.08,1975.97 2594.15,1976.87 2592.74,1978.60 2591.84,1981.14"/>
    </edge>
    <edge id=":11496561439_1" function="internal">
        <lane id=":11496561439_1_0" index="0" disallow="tram rail_urban rail rail_electric rail_fast ship" speed="13.89" length="14.43" shape="2598.53,1975.88 2584.19,1974.30"/>
    </edge>
    <edge id=":11496561439_2" function="internal">
        <lane id=":11496561439_2_0" index="0" disallow="tram rail_urban rail rail_electric rail_fast ship" speed="3.65" length="1.44" shape="2598.53,1975.88 2597.43,1974.94"/>
    </edge>
    <edge id=":11496561439_9" function="internal">
        <lane id=":11496561439_9_0" index="0" disallow="tram rail_urban rail rail_electric rail_fast ship" speed="3.65" length="3.23" shape="2597.43,1974.94 2597.13,1974.10 2597.62,1973.35 2598.91,1972.70"/>
    </edge>
    <edge id=":11496561439_3" function="internal">
        <lane id=":11496561439_3_0" index="0" disallow="tram rail_urban rail rail_electric rail_fast ship" speed="13.89" length="14.43" shape="2584.57,1971.12 2598.91,1972.70"/>
    </edge>
    <edge id=":11496561439_4" function="internal">
        <lane id=":11496561439_4_0" index="0" disallow="tram rail_urban rail rail_electric rail_fast ship" speed="7.73" length="4.42" shape="2584.57,1971.12 2588.50,1971.97 2588.81,1972.21"/>
    </edge>
    <edge id=":11496561439_5" function="internal">
        <lane id=":11496561439_5_0" index="0" disallow="tram rail_urban rail rail_electric rail_fast ship" speed="3.65" length="1.44" shape="2584.57,1971.12 2585.67,1972.05"/>
    </edge>
    <edge id=":11496561439_10" function="internal">
        <lane id=":11496561439_10_0" index="0" disallow="tram rail_urban rail rail_electric rail_fast ship" speed="7.73" length="10.23" shape="2588.81,1972.21 2591.03,1973.93 2592.14,1976.99 2591.84,1981.14"/>
    </edge>
    <edge id=":11496561439_11" function="internal">
        <lane id=":11496561439_11_0" index="0" disallow="tram rail_urban rail rail_electric rail_fast ship" speed="3.65" length="3.24" shape="2585.67,1972.05 2585.97,1972.90 2585.48,1973.65 2584.19,1974.30"/>
    </edge>
    <edge id=":11496561439_6" function="internal">
        <lane id=":11496561439_6_0" index="0" disallow="tram rail_urban rail rail_electric rail_fast ship" speed="6.22" length="9.05" shape="2588.71,1980.48 2588.90,1977.92 2588.20,1976.03 2586.63,1974.83 2584.19,1974.30"/>
    </edge>
    <edge id=":11496561439_7" function="internal">
        <lane id=":11496561439_7_0" index="0" disallow="tram rail_urban rail rail_electric rail_fast ship" speed="8.32" length="14.34" shape="2588.71,1980.48 2590.05,1976.70 2592.20,1974.15 2595.15,1972.82 2598.91,1972.70"/>
    </edge>
    <edge id=":11496561439_8" function="internal">
        <lane id=":11496561439_8_0" index="0" disallow="tram rail_urban rail rail_electric rail_fast ship" speed="3.65" length="4.67" shape="2588.71,1980.48 2589.75,1979.47 2590.61,1979.25 2591.31,1979.80 2591.84,1981.14"/>
    </edge>
    <edge id=":11751175224_0" function="internal">
        <lane id=":11751175224_0_0" index="0" disallow="tram rail_urban rail rail_electric rail_fast ship" speed="13.89" length="9.40" shape="4032.75,1790.16 4032.57,1799.56"/>
    </edge>
    <edge id=":11751175224_1" function="internal">
        <lane id=":11751175224_1_0" index="0" allow="pedestrian delivery bicycle" speed="6.90" length="3.23" shape="4032.75,1790.16 4032.30,1792.89 4032.05,1793.29"/>
    </edge>
    <edge id=":11751175224_7" function="internal">
        <lane id=":11751175224_7_0" index="0" allow="pedestrian delivery bicycle" speed="6.90" length="6.93" shape="4032.05,1793.29 4031.08,1794.83 4029.08,1795.99 4026.30,1796.37"/>
    </edge>
    <edge id=":11751175224_2" function="internal">
        <lane id=":11751175224_2_0" index="0" allow="pedestrian delivery bicycle" speed="5.09" length="5.06" shape="4026.31,1793.17 4027.71,1792.98 4028.71,1792.41 4029.32,1791.45 4029.55,1790.11"/>
    </edge>
    <edge id=":11751175224_3" function="internal">
        <lane id=":11751175224_3_0" index="0" allow="pedestrian delivery bicycle" speed="6.85" length="10.24" shape="4026.31,1793.17 4029.10,1793.58 4031.07,1794.78 4032.22,1796.77 4032.57,1799.56"/>
    </edge>
    <edge id=":11751175224_4" function="internal">
        <lane id=":11751175224_4_0" index="0" allow="pedestrian delivery bicycle" speed="3.65" length="4.67" shape="4026.31,1793.17 4027.51,1793.97 4027.91,1794.78 4027.51,1795.57 4026.30,1796.37"/>
    </edge>
    <edge id=":11751175224_5" function="internal">
        <lane id=":11751175224_5_0" index="0" allow="pedestrian delivery bicycle" speed="5.02" length="5.02" shape="4029.37,1799.50 4029.20,1798.14 4028.63,1797.16 4027.67,1796.57 4026.30,1796.37"/>
    </edge>
    <edge id=":11751175224_6" function="internal">
        <lane id=":11751175224_6_0" index="0" disallow="tram rail_urban rail rail_electric rail_fast ship" speed="13.89" length="9.40" shape="4029.37,1799.50 4029.55,1790.11"/>
    </edge>
    <edge id=":11751175225_0" function="internal">
        <lane id=":11751175225_0_0" index="0" allow="pedestrian delivery bicycle" speed="3.65" length="4.67" shape="3972.24,1796.23 3971.04,1795.43 3970.64,1794.63 3971.04,1793.83 3972.24,1793.03"/>
    </edge>
    <edge id=":11751175233_0" function="internal">
        <lane id=":11751175233_0_0" index="0" allow="pedestrian delivery bicycle" speed="5.02" length="5.02" shape="3965.98,1824.95 3964.61,1825.09 3963.63,1825.64 3963.02,1826.60 3962.80,1827.96"/>
    </edge>
    <edge id=":11751175233_1" function="internal">
        <lane id=":11751175233_1_0" index="0" allow="pedestrian delivery bicycle" speed="6.90" length="10.16" shape="3965.98,1824.95 3963.23,1824.46 3961.27,1823.22 3960.12,1821.23 3959.78,1818.50"/>
    </edge>
    <edge id=":11751175233_2" function="internal">
        <lane id=":11751175233_2_0" index="0" allow="pedestrian delivery bicycle" speed="3.65" length="4.67" shape="3965.98,1824.95 3964.81,1824.10 3964.44,1823.29 3964.87,1822.51 3966.10,1821.75"/>
    </edge>
    <edge id=":11751175233_3" function="internal">
        <lane id=":11751175233_3_0" index="0" allow="pedestrian delivery bicycle" speed="5.09" length="5.07" shape="3962.98,1818.56 3963.15,1819.91 3963.73,1820.89 3964.71,1821.51 3966.10,1821.75"/>
    </edge>
    <edge id=":11751175233_4" function="internal">
        <lane id=":11751175233_4_0" index="0" disallow="tram rail_urban rail rail_electric rail_fast ship" speed="13.89" length="9.40" shape="3962.98,1818.56 3962.80,1827.96"/>
    </edge>
    <edge id=":11751175233_5" function="internal">
        <lane id=":11751175233_5_0" index="0" disallow="tram rail_urban rail rail_electric rail_fast ship" speed="13.89" length="9.40" shape="3959.60,1827.90 3959.78,1818.50"/>
    </edge>
    <edge id=":11751175233_6" function="internal">
        <lane id=":11751175233_6_0" index="0" allow="pedestrian delivery bicycle" speed="6.85" length="3.28" shape="3959.60,1827.90 3960.05,1825.12 3960.30,1824.73"/>
    </edge>
    <edge id=":11751175233_7" function="internal">
        <lane id=":11751175233_7_0" index="0" allow="pedestrian delivery bicycle" speed="6.85" length="6.96" shape="3960.30,1824.73 3961.29,1823.17 3963.30,1822.05 3966.10,1821.75"/>
    </edge>
    <edge id=":11751175242_0" function="internal">
        <lane id=":11751175242_0_0" index="0" disallow="tram rail_urban rail rail_electric rail_fast ship" speed="5.93" length="7.36" shape="3844.41,1876.78 3844.63,1879.23 3845.28,1880.98 3846.36,1882.02 3847.86,1882.36"/>
    </edge>
    <edge id=":11751175242_1" function="internal">
        <lane id=":11751175242_1_0" index="0" disallow="tram rail_urban rail rail_electric rail_fast ship" speed="3.65" length="1.44" shape="3844.41,1876.78 3843.61,1877.99"/>
    </edge>
    <edge id=":11751175242_4" function="internal">
        <lane id=":11751175242_4_0" index="0" disallow="tram rail_urban rail rail_electric rail_fast ship" speed="3.65" length="3.23" shape="3843.61,1877.99 3842.82,1878.39 3842.01,1877.99 3841.21,1876.80"/>
    </edge>
    <edge id=":11751175242_2" function="internal">
        <lane id=":11751175242_2_0" index="0" disallow="tram rail_urban rail rail_electric rail_fast ship" speed="6.53" length="9.06" shape="3835.64,1882.48 3838.09,1882.10 3839.83,1881.03 3840.87,1879.26 3841.21,1876.80"/>
    </edge>
    <edge id=":11751175242_3" function="internal">
        <lane id=":11751175242_3_0" index="0" disallow="tram rail_urban rail rail_electric rail_fast ship" speed="13.89" length="12.21" shape="3835.64,1882.48 3847.86,1882.36"/>
    </edge>
    <edge id=":11751175245_0" function="internal">
        <lane id=":11751175245_0_0" index="0" disallow="tram rail_urban rail rail_electric rail_fast ship" speed="6.48" length="9.03" shape="3856.57,1876.55 3856.94,1879.00 3858.00,1880.74 3859.77,1881.75 3862.23,1882.06"/>
    </edge>
    <edge id=":11751175245_1" function="internal">
        <lane id=":11751175245_1_0" index="0" disallow="tram rail_urban rail rail_electric rail_fast ship" speed="3.65" length="1.44" shape="3856.57,1876.55 3855.78,1877.75"/>
    </edge>
    <edge id=":11751175245_4" function="internal">
        <lane id=":11751175245_4_0" index="0" disallow="tram rail_urban rail rail_electric rail_fast ship" speed="3.65" length="3.23" shape="3855.78,1877.75 3854.98,1878.16 3854.18,1877.76 3853.37,1876.56"/>
    </edge>
    <edge id=":11751175245_2" function="internal">
        <lane id=":11751175245_2_0" index="0" disallow="tram rail_urban rail rail_electric rail_fast ship" speed="6.16" length="7.89" shape="3849.41,1882.33 3851.15,1881.94 3852.40,1880.85 3853.14,1879.06 3853.37,1876.56"/>
    </edge>
    <edge id=":11751175245_3" function="internal">
        <lane id=":11751175245_3_0" index="0" disallow="tram rail_urban rail rail_electric rail_fast ship" speed="13.89" length="12.83" shape="3849.41,1882.33 3862.23,1882.06"/>
    </edge>
    <edge id=":11953279768_0" function="internal">
        <lane id=":11953279768_0_0" index="0" disallow="tram rail_urban rail rail_electric rail_fast ship" speed="8.21" length="14.91" shape="3437.54,1578.59 3436.83,1575.26 3434.79,1572.88 3431.43,1571.47 3426.73,1571.01"/>
    </edge>
    <edge id=":11953279768_1" function="internal">
        <lane id=":11953279768_1_0" index="0" disallow="tram rail_urban rail rail_electric rail_fast ship" speed="10.03" length="5.09" shape="3437.54,1578.59 3437.63,1573.50"/>
    </edge>
    <edge id=":11953279768_2" function="internal">
        <lane id=":11953279768_2_0" index="0" disallow="tram rail_urban rail rail_electric rail_fast ship" speed="4.04" length="5.89" shape="3437.54,1578.59 3437.23,1576.69 3437.65,1575.57 3438.80,1575.23 3440.33,1575.60"/>
    </edge>
    <edge id=":11953279768_9" function="internal">
        <lane id=":11953279768_9_0" index="0" disallow="tram rail_urban rail rail_electric rail_fast ship" speed="10.03" length="8.23" shape="3437.63,1573.50 3438.02,1569.66 3438.72,1567.06 3439.73,1565.72"/>
    </edge>
    <edge id=":11953279768_10" function="internal">
        <lane id=":11953279768_10_0" index="0" disallow="tram rail_urban rail rail_electric rail_fast ship" speed="4.04" length="0.35" shape="3440.33,1575.60 3440.67,1575.68"/>
    </edge>
    <edge id=":11953279768_3" function="internal">
        <lane id=":11953279768_3_0" index="0" disallow="tram rail_urban rail rail_electric rail_fast ship" speed="7.57" length="7.37" shape="3441.42,1568.43 3441.05,1569.08 3440.81,1570.51 3440.68,1572.71 3440.67,1575.68"/>
    </edge>
    <edge id=":11953279768_4" function="internal">
        <lane id=":11953279768_4_0" index="0" disallow="tram rail_urban rail rail_electric rail_fast ship" speed="11.11" length="15.11" shape="3441.42,1568.43 3438.04,1569.95 3434.36,1570.71 3430.54,1570.97 3426.73,1571.01"/>
    </edge>
    <edge id=":11953279768_5" function="internal">
        <lane id=":11953279768_5_0" index="0" disallow="tram rail_urban rail rail_electric rail_fast ship" speed="3.65" length="4.67" shape="3441.42,1568.43 3439.98,1568.39 3439.22,1567.92 3439.13,1567.03 3439.73,1565.72"/>
    </edge>
    <edge id=":11953279768_6" function="internal">
        <lane id=":11953279768_6_0" index="0" disallow="tram rail_urban rail rail_electric rail_fast ship" speed="11.11" length="10.97" shape="3429.19,1567.80 3432.35,1567.84 3434.74,1567.75 3437.00,1567.16 3439.73,1565.72"/>
    </edge>
    <edge id=":11953279768_7" function="internal">
        <lane id=":11953279768_7_0" index="0" disallow="tram rail_urban rail rail_electric rail_fast ship" speed="8.42" length="15.70" shape="3429.19,1567.80 3434.17,1568.28 3437.74,1569.75 3439.91,1572.21 3440.67,1575.68"/>
    </edge>
    <edge id=":11953279768_8" function="internal">
        <lane id=":11953279768_8_0" index="0" disallow="tram rail_urban rail rail_electric rail_fast ship" speed="3.96" length="1.60" shape="3429.19,1567.80 3429.71,1569.32"/>
    </edge>
    <edge id=":11953279768_11" function="internal">
        <lane id=":11953279768_11_0" index="0" disallow="tram rail_urban rail rail_electric rail_fast ship" speed="3.96" length="4.31" shape="3429.71,1569.32 3429.78,1569.53 3429.57,1570.64 3428.55,1571.14 3426.73,1571.01"/>
    </edge>
    <edge id=":12005765549_0" function="internal">
        <lane id=":12005765549_0_0" index="0" disallow="tram rail_urban rail rail_electric rail_fast ship" speed="13.89" length="5.08" shape="3240.15,1532.09 3240.39,1537.17"/>
    </edge>
    <edge id=":2225271061_0" function="internal">
        <lane id=":2225271061_0_0" index="0" disallow="pedestrian bicycle tram rail_urban rail rail_electric rail_fast ship" speed="7.00" length="9.69" shape="3998.20,2061.83 3995.49,2061.21 3993.21,2061.47 3991.36,2062.59 3989.94,2064.59"/>
    </edge>
    <edge id=":2225271061_1" function="internal">
        <lane id=":2225271061_1_0" index="0" disallow="tram rail_urban rail rail_electric rail_fast ship" speed="3.65" length="4.67" shape="3998.20,2061.83 3997.34,2060.67 3997.23,2059.78 3997.88,2059.16 3999.28,2058.82"/>
    </edge>
    <edge id=":2225271061_2" function="internal">
        <lane id=":2225271061_2_0" index="0" disallow="pedestrian bicycle tram rail_urban rail rail_electric rail_fast ship" speed="6.24" length="9.05" shape="3996.46,2051.67 3995.64,2054.06 3995.84,2056.04 3997.05,2057.63 3999.28,2058.82"/>
    </edge>
    <edge id=":2225271061_3" function="internal">
        <lane id=":2225271061_3_0" index="0" disallow="pedestrian bicycle tram rail_urban rail rail_electric rail_fast ship" speed="27.78" length="14.50" shape="3996.46,2051.67 3989.94,2064.59"/>
        <lane id=":2225271061_3_1" index="1" disallow="pedestrian bicycle tram rail_urban rail rail_electric rail_fast ship" speed="27.78" length="14.50" shape="3993.62,2050.20 3987.07,2063.17"/>
    </edge>
    <edge id=":2225271071_0" function="internal">
        <lane id=":2225271071_0_0" index="0" disallow="tram rail_urban rail rail_electric rail_fast ship" speed="7.44" length="10.27" shape="4054.71,2082.42 4052.33,2081.91 4050.09,2082.35 4048.00,2083.74 4046.07,2086.09"/>
    </edge>
    <edge id=":2225271071_1" function="internal">
        <lane id=":2225271071_1_0" index="0" disallow="tram rail_urban rail rail_electric rail_fast ship" speed="13.89" length="14.62" shape="4054.71,2082.42 4041.04,2077.25"/>
    </edge>
    <edge id=":2225271071_2" function="internal">
        <lane id=":2225271071_2_0" index="0" disallow="tram rail_urban rail rail_electric rail_fast ship" speed="3.65" length="1.44" shape="4054.71,2082.42 4053.90,2081.23"/>
    </edge>
    <edge id=":2225271071_9" function="internal">
        <lane id=":2225271071_9_0" index="0" disallow="tram rail_urban rail rail_electric rail_fast ship" speed="3.65" length="3.23" shape="4053.90,2081.23 4053.82,2080.34 4054.49,2079.75 4055.91,2079.45"/>
    </edge>
    <edge id=":2225271071_3" function="internal">
        <lane id=":2225271071_3_0" index="0" disallow="tram rail_urban rail rail_electric rail_fast ship" speed="13.89" length="14.74" shape="4042.12,2074.24 4055.91,2079.45"/>
    </edge>
    <edge id=":2225271071_4" function="internal">
        <lane id=":2225271071_4_0" index="0" disallow="tram rail_urban rail rail_electric rail_fast ship" speed="7.64" length="4.45" shape="4042.12,2074.24 4045.93,2076.26 4046.02,2076.37"/>
    </edge>
    <edge id=":2225271071_5" function="internal">
        <lane id=":2225271071_5_0" index="0" disallow="tram rail_urban rail rail_electric rail_fast ship" speed="3.65" length="1.44" shape="4042.12,2074.24 4042.98,2075.39"/>
    </edge>
    <edge id=":2225271071_10" function="internal">
        <lane id=":2225271071_10_0" index="0" disallow="tram rail_urban rail rail_electric rail_fast ship" speed="7.64" length="10.73" shape="4046.02,2076.37 4047.86,2078.91 4047.91,2082.18 4046.07,2086.09"/>
    </edge>
    <edge id=":2225271071_11" function="internal">
        <lane id=":2225271071_11_0" index="0" disallow="tram rail_urban rail rail_electric rail_fast ship" speed="3.65" length="3.23" shape="4042.98,2075.39 4043.09,2076.28 4042.44,2076.90 4041.04,2077.25"/>
    </edge>
    <edge id=":2225271071_6" function="internal">
        <lane id=":2225271071_6_0" index="0" disallow="tram rail_urban rail rail_electric rail_fast ship" speed="6.05" length="9.07" shape="4043.40,2084.33 4044.49,2082.00 4044.47,2080.04 4043.32,2078.45 4041.04,2077.25"/>
    </edge>
    <edge id=":2225271071_7" function="internal">
        <lane id=":2225271071_7_0" index="0" disallow="tram rail_urban rail rail_electric rail_fast ship" speed="8.80" length="14.70" shape="4043.40,2084.33 4046.11,2081.09 4049.10,2079.20 4052.37,2078.65 4055.91,2079.45"/>
    </edge>
    <edge id=":2225271071_8" function="internal">
        <lane id=":2225271071_8_0" index="0" disallow="tram rail_urban rail rail_electric rail_fast ship" speed="3.65" length="4.67" shape="4043.40,2084.33 4044.73,2083.76 4045.61,2083.87 4046.06,2084.65 4046.07,2086.09"/>
    </edge>
    <edge id=":2225271163_0" function="internal">
        <lane id=":2225271163_0_0" index="0" disallow="tram rail_urban rail rail_electric rail_fast ship" speed="3.65" length="4.67" shape="3960.14,2219.88 3958.83,2220.47 3957.94,2220.38 3957.47,2219.61 3957.43,2218.17"/>
    </edge>
    <edge id=":2225294554_0" function="internal">
        <lane id=":2225294554_0_0" index="0" disallow="tram rail_urban rail rail_electric rail_fast ship" speed="4.78" length="4.29" shape="2576.06,1264.58 2575.84,1263.31 2575.35,1262.41 2574.59,1261.88 2573.55,1261.72"/>
    </edge>
    <edge id=":2225294554_1" function="internal">
        <lane id=":2225294554_1_0" index="0" disallow="tram rail_urban rail rail_electric rail_fast ship" speed="7.38" length="12.13" shape="2576.06,1264.58 2576.46,1261.89 2578.02,1259.93 2580.74,1258.69 2584.62,1258.18"/>
    </edge>
    <edge id=":2225294554_2" function="internal">